<?xml version="1.0" encoding="UTF-8"?>
<febio_spec version="3.0">
    <!--Created using GIBBON, 02-Dec-2021 13:23:02-->
    <Module type="solid"/>
    <Control>
        <analysis>STATIC</analysis>
        <time_steps>10</time_steps>
        <step_size>1.0000000e-01</step_size>
        <solver>
            <max_refs>30</max_refs>
            <max_ups>0</max_ups>
            <diverge_reform>1</diverge_reform>
            <reform_each_time_step>1</reform_each_time_step>
            <dtol>1.0000000e-03</dtol>
            <etol>1.0000000e-02</etol>
            <rtol>0</rtol>
            <lstol>9.0000000e-01</lstol>
            <lsmin>1.0000000e-02</lsmin>
            <lsiter>5</lsiter>
            <min_residual>1.0000000e-20</min_residual>
            <optimize_bw>0</optimize_bw>
            <qnmethod>BFGS</qnmethod>
            <cmax>100000</cmax>
        </solver>
        <time_stepper>
            <dtmin>2.0000000e-04</dtmin>
            <dtmax>1.0000000e-01</dtmax>
            <max_retries>25</max_retries>
            <opt_iter>6</opt_iter>
        </time_stepper>
        <plot_level>PLOT_MAJOR_ITRS</plot_level>
        <plot_range>0, -1</plot_range>
        <plot_stride>1</plot_stride>
        <plot_zero_state>0</plot_zero_state>
        <output_level>OUTPUT_MAJOR_ITRS</output_level>
    </Control>
    <Globals>
        <Constants>
            <T>8.3140000e-06</T>
            <R>298</R>
            <Fc>9.6485000e-05</Fc>
        </Constants>
    </Globals>
    <Material>
        <material id="1" name="rigid" type="rigid body">
            <density>1</density>
            <center_of_mass>0, 0, 0</center_of_mass>
        </material>
        <material id="2" name="membrane" type="neo-Hookean">
            <density>1</density>
            <E>100</E>
            <v>4.8000000e-01</v>
        </material>
    </Material>
    <Mesh>
        <Nodes name="rigid_dome_node_set">
                <node id="1">7.6537897e-16, -1.8745759e-31, 0.0000000e+00</node>
                <node id="2">1.2500000e+01, -3.0615159e-15, -1.2500000e+01</node>
                <node id="3">1.2461467e+01, -3.0520783e-15, -1.1519261e+01</node>
                <node id="4">1.2346104e+01, -3.0238235e-15, -1.0544569e+01</node>
                <node id="5">1.2154624e+01, -2.9769260e-15, -9.5819330e+00</node>
                <node id="6">1.1888206e+01, -2.9116746e-15, -8.6372876e+00</node>
                <node id="7">1.1548494e+01, -2.8284719e-15, -7.7164571e+00</node>
                <node id="8">1.1137582e+01, -2.7278306e-15, -6.8251188e+00</node>
                <node id="9">1.0658002e+01, -2.6103714e-15, -5.9687679e+00</node>
                <node id="10">1.0112712e+01, -2.4768184e-15, -5.1526843e+00</node>
                <node id="11">9.5050746e+00, -2.3279949e-15, -4.3818994e+00</node>
                <node id="12">8.8388348e+00, -2.1648186e-15, -3.6611652e+00</node>
                <node id="13">8.1181006e+00, -1.9882955e-15, -2.9949254e+00</node>
                <node id="14">7.3473157e+00, -1.7995139e-15, -2.3872876e+00</node>
                <node id="15">6.5312321e+00, -1.5996377e-15, -1.8419979e+00</node>
                <node id="16">5.6748812e+00, -1.3898991e-15, -1.3624184e+00</node>
                <node id="17">4.7835429e+00, -1.1715914e-15, -9.5150584e-01</node>
                <node id="18">3.8627124e+00, -9.4606044e-16, -6.1179355e-01</node>
                <node id="19">2.9180670e+00, -7.1469669e-16, -3.4537600e-01</node>
                <node id="20">1.9554308e+00, -4.7892660e-16, -1.5389574e-01</node>
<!-- ... 4009 like lines cut -->
        </Nodes>
        <Nodes name="square_membrane_node_set">
                <node id="4030">-2.5000000e+01, -2.5000000e+01, 0.0000000e+00</node>
                <node id="4031">2.5000000e+01, -2.5000000e+01, 0.0000000e+00</node>
                <node id="4032">2.5000000e+01, 2.5000000e+01, 0.0000000e+00</node>
                <node id="4033">-2.5000000e+01, 2.5000000e+01, 0.0000000e+00</node>
                <node id="4034">-2.5000000e+01, -2.5000000e+01, 5.0000000e-01</node>
                <node id="4035">2.5000000e+01, -2.5000000e+01, 5.0000000e-01</node>
                <node id="4036">2.5000000e+01, 2.5000000e+01, 5.0000000e-01</node>
                <node id="4037">-2.5000000e+01, 2.5000000e+01, 5.0000000e-01</node>
                <node id="4038">-2.3571429e+01, -2.5000000e+01, 0.0000000e+00</node>
                <node id="4039">-2.2142857e+01, -2.5000000e+01, 0.0000000e+00</node>
                <node id="4040">-2.0714286e+01, -2.5000000e+01, 0.0000000e+00</node>
                <node id="4041">-1.9285714e+01, -2.5000000e+01, 0.0000000e+00</node>
                <node id="4042">-1.7857143e+01, -2.5000000e+01, 0.0000000e+00</node>
                <node id="4043">-1.6428571e+01, -2.5000000e+01, 0.0000000e+00</node>
                <node id="4044">-1.5000000e+01, -2.5000000e+01, 0.0000000e+00</node>
                <node id="4045">-1.3571429e+01, -2.5000000e+01, 0.0000000e+00</node>
                <node id="4046">-1.2142857e+01, -2.5000000e+01, 0.0000000e+00</node>
                <node id="4047">-1.0714286e+01, -2.5000000e+01, 0.0000000e+00</node>
                <node id="4048">-9.2857143e+00, -2.5000000e+01, 0.0000000e+00</node>
                <node id="4049">-7.8571429e+00, -2.5000000e+01, 0.0000000e+00</node>
<!-- ... 2965 like lines cut -->
        </Nodes>
        <Surface name="Dome">
                <tri3 id="1">1, 979, 21</tri3>
                <tri3 id="2">21, 1080, 1</tri3>
                <tri3 id="3">1, 902, 901</tri3>
                <tri3 id="4">901, 979, 1</tri3>
                <tri3 id="5">1, 1080, 902</tri3>
                <tri3 id="6">2, 1188, 3</tri3>
                <tri3 id="7">3, 1189, 2</tri3>
                <tri3 id="8">22, 1188, 2</tri3>
                <tri3 id="9">2, 1189, 99</tri3>
                <tri3 id="10">3, 1074, 4</tri3>
                <tri3 id="11">4, 1075, 3</tri3>
                <tri3 id="12">3, 1188, 1074</tri3>
                <tri3 id="13">1075, 1189, 3</tri3>
                <tri3 id="14">5, 144, 4</tri3>
                <tri3 id="15">4, 145, 5</tri3>
                <tri3 id="16">144, 1075, 4</tri3>
                <tri3 id="17">4, 1074, 145</tri3>
                <tri3 id="18">6, 1000, 5</tri3>
                <tri3 id="19">5, 1122, 6</tri3>
                <tri3 id="20">5, 1000, 144</tri3>
<!-- ... 2375 like lines cut -->
        </Surface>
        <Surface name="dome_fixed">
                <tri3 id="1">22, 2, 1270</tri3>
                <tri3 id="2">2, 99, 1744</tri3>
                <tri3 id="3">1270, 2, 1744</tri3>
                <tri3 id="4">23, 22, 1734</tri3>
                <tri3 id="5">22, 1270, 1734</tri3>
                <tri3 id="6">24, 23, 1244</tri3>
                <tri3 id="7">1244, 23, 1734</tri3>
                <tri3 id="8">25, 24, 1775</tri3>
                <tri3 id="9">24, 1244, 1775</tri3>
                <tri3 id="10">26, 25, 1777</tri3>
                <tri3 id="11">25, 1775, 1777</tri3>
                <tri3 id="12">27, 26, 1266</tri3>
                <tri3 id="13">1266, 26, 1777</tri3>
                <tri3 id="14">28, 27, 1736</tri3>
                <tri3 id="15">27, 1266, 1736</tri3>
                <tri3 id="16">29, 28, 1251</tri3>
                <tri3 id="17">1251, 28, 1736</tri3>
                <tri3 id="18">30, 29, 1726</tri3>
                <tri3 id="19">29, 1251, 1726</tri3>
                <tri3 id="20">31, 30, 1263</tri3>
<!-- ... 1155 like lines cut -->
        </Surface>
        <Surface name="membrane_bottom">
                <tri3 id="1">4030, 4038, 4318</tri3>
                <tri3 id="2">4318, 4173, 4030</tri3>
                <tri3 id="3">4071, 4031, 4072</tri3>
                <tri3 id="4">5473, 4105, 4032</tri3>
                <tri3 id="5">4032, 4106, 5473</tri3>
                <tri3 id="6">4139, 4033, 4140</tri3>
                <tri3 id="7">4038, 4039, 4352</tri3>
                <tri3 id="8">4352, 4318, 4038</tri3>
                <tri3 id="9">4039, 4040, 4386</tri3>
                <tri3 id="10">4386, 4352, 4039</tri3>
                <tri3 id="11">4040, 4041, 4420</tri3>
                <tri3 id="12">4420, 4386, 4040</tri3>
                <tri3 id="13">4041, 4042, 4454</tri3>
                <tri3 id="14">4454, 4420, 4041</tri3>
                <tri3 id="15">4042, 4043, 4488</tri3>
                <tri3 id="16">4488, 4454, 4042</tri3>
                <tri3 id="17">4043, 4044, 4522</tri3>
                <tri3 id="18">4522, 4488, 4043</tri3>
                <tri3 id="19">4044, 4045, 4556</tri3>
                <tri3 id="20">4556, 4522, 4044</tri3>
<!-- ... 2430 like lines cut -->
        </Surface>
        <Surface name="membrane_top">
                <tri3 id="1">4034, 4178, 5746</tri3>
                <tri3 id="2">5746, 4317, 4034</tri3>
                <tri3 id="3">4211, 4035, 4214</tri3>
                <tri3 id="4">6901, 4247, 4036</tri3>
                <tri3 id="5">4036, 4250, 6901</tri3>
                <tri3 id="6">4283, 4037, 4284</tri3>
                <tri3 id="7">4178, 4179, 5780</tri3>
                <tri3 id="8">5780, 5746, 4178</tri3>
                <tri3 id="9">4179, 4180, 5814</tri3>
                <tri3 id="10">5814, 5780, 4179</tri3>
                <tri3 id="11">4180, 4181, 5848</tri3>
                <tri3 id="12">5848, 5814, 4180</tri3>
                <tri3 id="13">4181, 4182, 5882</tri3>
                <tri3 id="14">5882, 5848, 4181</tri3>
                <tri3 id="15">4182, 4183, 5916</tri3>
                <tri3 id="16">5916, 5882, 4182</tri3>
                <tri3 id="17">4183, 4184, 5950</tri3>
                <tri3 id="18">5950, 5916, 4183</tri3>
                <tri3 id="19">4184, 4185, 5984</tri3>
                <tri3 id="20">5984, 5950, 4184</tri3>
<!-- ... 2430 like lines cut -->
        </Surface>
        <Surface name="membrane_fixed">
                <tri3 id="1">5474, 4030, 4038</tri3>
                <tri3 id="2">4030, 5474, 4174</tri3>
                <tri3 id="3">4176, 4071, 4031</tri3>
                <tri3 id="4">4175, 4178, 4034</tri3>
                <tri3 id="5">4035, 5541, 4177</tri3>
                <tri3 id="6">5541, 4035, 4211</tri3>
                <tri3 id="7">5475, 4038, 4039</tri3>
                <tri3 id="8">4038, 5475, 5474</tri3>
                <tri3 id="9">5476, 4039, 4040</tri3>
                <tri3 id="10">4039, 5476, 5475</tri3>
                <tri3 id="11">5477, 4040, 4041</tri3>
                <tri3 id="12">4040, 5477, 5476</tri3>
                <tri3 id="13">5478, 4041, 4042</tri3>
                <tri3 id="14">4041, 5478, 5477</tri3>
                <tri3 id="15">5479, 4042, 4043</tri3>
                <tri3 id="16">4042, 5479, 5478</tri3>
                <tri3 id="17">5480, 4043, 4044</tri3>
                <tri3 id="18">4043, 5480, 5479</tri3>
                <tri3 id="19">5481, 4044, 4045</tri3>
                <tri3 id="20">4044, 5481, 5480</tri3>
<!-- ... 820 like lines cut -->
        </Surface>
        <Elements name="Rigid_dome" type="tet4">
                <elem id="3571">2157, 2499, 739, 2806</elem>
                <elem id="3572">2043, 2334, 1947, 2388</elem>
                <elem id="3573">2457, 3068, 2199, 3318</elem>
                <elem id="3574">1077, 2688, 2271, 2693</elem>
                <elem id="3575">1903, 2639, 3082, 3523</elem>
                <elem id="3576">950, 2624, 2108, 3176</elem>
                <elem id="3577">2068, 2117, 3246, 3812</elem>
                <elem id="3578">864, 2838, 2629, 3213</elem>
                <elem id="3579">1110, 2806, 2266, 3003</elem>
                <elem id="3580">1051, 3588, 2664, 3831</elem>
                <elem id="3581">1863, 2192, 2081, 2889</elem>
                <elem id="3582">3234, 3725, 2598, 3734</elem>
                <elem id="3583">1323, 2407, 2140, 2721</elem>
                <elem id="3584">2573, 3140, 2123, 3250</elem>
                <elem id="3585">1323, 2140, 1335, 2721</elem>
                <elem id="3586">2367, 3082, 2639, 3523</elem>
                <elem id="3587">2708, 3268, 2577, 3413</elem>
                <elem id="3588">2027, 2507, 2620, 3067</elem>
                <elem id="3589">1331, 2556, 3197, 3723</elem>
                <elem id="3590">1822, 2523, 2420, 3727</elem>
<!-- ... 19266 like lines cut -->
        </Elements>
        <Elements name="Membrane" type="tet4">
                <elem id="28597">4941, 4907, 4906, 6955</elem>
                <elem id="28598">5979, 5945, 5980, 6934</elem>
                <elem id="28599">5946, 5980, 5945, 6934</elem>
                <elem id="28600">6057, 6091, 6056, 6952</elem>
                <elem id="28601">6345, 6346, 6380, 6967</elem>
                <elem id="28602">6380, 6379, 6345, 6967</elem>
                <elem id="28603">6571, 6570, 6536, 7004</elem>
                <elem id="28604">6537, 6571, 6536, 7004</elem>
                <elem id="28605">4544, 4578, 4579, 6939</elem>
                <elem id="28606">4579, 4545, 4544, 6939</elem>
                <elem id="28607">4925, 4959, 4960, 6985</elem>
                <elem id="28608">4960, 4926, 4925, 6985</elem>
                <elem id="28609">5380, 6773, 6808, 7013</elem>
                <elem id="28610">5380, 5345, 6773, 7013</elem>
                <elem id="28611">4358, 5786, 5751, 6945</elem>
                <elem id="28612">4358, 5751, 4323, 6945</elem>
                <elem id="28613">5078, 6471, 6506, 7006</elem>
                <elem id="28614">5078, 5043, 6471, 7006</elem>
                <elem id="28615">4703, 4738, 6166, 6953</elem>
                <elem id="28616">6166, 6131, 4703, 6953</elem>
<!-- ... 8829 like lines cut -->
        </Elements>
        <SurfacePair name="membrane_dome">
            <primary>membrane_bottom</primary>
            <secondary>Dome</secondary>
        </SurfacePair>
    </Mesh>
    <MeshDomains>
        <SolidDomain mat="rigid" name="Rigid_dome"/>
        <SolidDomain mat="membrane" name="Membrane"/>
    </MeshDomains>
    <Boundary>
        <bc name="fix_xyz_membrane" node_set="@surface:membrane_fixed" type="fix">
            <dofs>x,y,z</dofs>
        </bc>
        <bc name="fix_xyz_dome" node_set="@surface:dome_fixed" type="fix">
            <dofs>x,y,z</dofs>
        </bc>
    </Boundary>
    <Rigid>
        <rigid_constraint name="RigidFix" type="fix">
            <rb>1</rb>
            <dofs>Rx,Ry,Rz,Ru,Rv,Rw</dofs>
        </rigid_constraint>
    </Rigid>
    <Loads>
        <surface_load name="Membrane_Pressure" surface="membrane_top" type="pressure">
            <pressure lc="1">6.7000000e-01</pressure>
            <symmetric_stiffness>1</symmetric_stiffness>
        </surface_load>
    </Loads>
    <Contact>
        <contact name="membrane_dome" surface_pair="membrane_dome" type="sliding-facet-on-facet">
            <two_pass>0</two_pass>
            <laugon>1</laugon>
            <tolerance>2.0000000e-01</tolerance>
            <gaptol>0</gaptol>
            <minaug>0</minaug>
            <maxaug>10</maxaug>
            <search_tol>1.0000000e-02</search_tol>
            <search_radius>0</search_radius>
            <auto_penalty>0</auto_penalty>
            <penalty>1000</penalty>
            <fric_coeff>0</fric_coeff>
        </contact>
    </Contact>
    <LoadData>
        <load_controller id="1" type="loadcurve">
            <interpolate>LINEAR</interpolate>
            <points>
                    <point>0.0000000e+00, 0.0000000e+00</point>
                    <point>2.0000000e-01, 5.0000000e-02</point>
                    <point>7.5000000e-01, 3.0000000e-01</point>
                    <point>1.0000000e+00, 1.0000000e+00</point>
            </points>
        </load_controller>
    </LoadData>
    <Output>
        <plotfile type="febio">
            <var type="displacement"/>
            <var type="stress"/>
            <var type="relative volume"/>
            <var type="reaction forces"/>
            <var type="contact pressure"/>
        </plotfile>
        <logfile file="Gmsh_Example.txt">
            <node_data data="ux;uy;uz" delim="," file="Gmsh_Example_disp_out.txt"/>
            <element_data data="sz" delim="," file="Gmsh_Example_stress_out.txt"/>
            <element_data data="s1;s2;s3" delim="," file="Gmsh_Example_stress_prin_out.txt"/>
        </logfile>
    </Output>
</febio_spec>
